synthetic_grid.m
function mpc = synthetic_grid
%MATPOWER Case file: synthetic_grid
%Generated by PowerGridSynthesizer on 2026-01-19 18:55:23

mpc.version = '2';
mpc.baseMVA = 100.0;

%% bus data
mpc.bus = [
	1	1	0.00	0.00	0	0	1	1.0	0.0	230.0	1	1.1	0.9;
	2	1	14.78	0.00	0	0	1	1.0	0.0	230.0	1	1.1	0.9;
	3	2	0.00	0.00	0	0	1	1.0	0.0	230.0	1	1.1	0.9;
	4	1	0.00	0.00	0	0	1	1.0	0.0	230.0	1	1.1	0.9;
	5	1	31.15	0.00	0	0	1	1.0	0.0	230.0	1	1.1	0.9;
	6	1	89.45	0.00	0	0	1	1.0	0.0	230.0	1	1.1	0.9;
	7	2	0.00	0.00	0	0	1	1.0	0.0	230.0	1	1.1	0.9;
	8	1	33.31	0.00	0	0	1	1.0	0.0	230.0	1	1.1	0.9;
	9	2	0.00	0.00	0	0	1	1.0	0.0	230.0	1	1.1	0.9;
	10	3	0.00	0.00	0	0	1	1.0	0.0	230.0	1	1.1	0.9;
];

%% generator data
mpc.gen = [
	3	0.00	0.00	999	-999	1.0	100.0	1	73.82	0.00	0	0	0	0	0	0	0	0	0	0	0;
	7	95.45	0.00	999	-999	1.0	100.0	1	95.45	0.00	0	0	0	0	0	0	0	0	0	0	0;
	9	0.00	0.00	999	-999	1.0	100.0	1	39.74	0.00	0	0	0	0	0	0	0	0	0	0	0;
	10	0.00	0.00	999	-999	1.0	100.0	1	114.58	0.00	0	0	0	0	0	0	0	0	0	0	0;
];

%% branch data
mpc.branch = [
	2	4	0.00085	0.04139	0.00000	123.75	123.75	123.75	0	0	1	-360	360;
	2	8	0.01103	0.02004	0.00000	1419.04	1419.04	1419.04	0	0	1	-360	360;
	4	1	0.00329	0.01927	0.00000	587.83	587.83	587.83	0	0	1	-360	360;
	4	3	0.00142	0.05826	0.00000	73.69	73.69	73.69	0	0	1	-360	360;
	8	10	0.10359	0.37219	0.00000	50.77	50.77	50.77	0	0	1	-360	360;
	8	7	0.00328	0.01635	0.00000	151.89	151.89	151.89	0	0	1	-360	360;
	1	6	0.00128	0.02048	0.00000	331.30	331.30	331.30	0	0	1	-360	360;
	3	9	0.00752	0.08013	0.00000	68.42	68.42	68.42	0	0	1	-360	360;
	9	7	0.00878	0.16912	0.00000	1776.12	1776.12	1776.12	0	0	1	-360	360;
	5	6	0.26225	0.11974	0.00000	407.76	407.76	407.76	0	0	1	-360	360;
];
